Project files/dadossis.m
% ********************************************************************** %
%                    UNIVERSIDADE TECNOLÓGICA FEDERAL DO PARANÁ
%                         CURSO DE ENGENHARIA ELÉTRICA
%             DISCIPLINA: ANÁLISE DE SISTEMAS ELÉTRICOS DE POTÊNCIA 1
% ********************************************************************** %

clc;
basemva=100;

% ********************************************************************** %
%                             Dados do Sistema
% ********************************************************************** %

%%% Dados de barra do sistema (PQ = 0,swing = 2, PV = 1)
%%%
%        Barra Barra  Tensão  Ângulo   ---Carga----    -------Geração----     Inj.CAP
%        No    Tipo    Mag.    Graus    MW    Mvar      MW  Mvar  Qmin Qmax    Mvar
busdata=[1       2     1.0     0.0     500    200       0.0  0.0   -300 400      0   
         2       1     1.0     0.0     0.0    0.0     500.0  0.0   -200 300      0   
         3       0     1.0     0.0     0.0    0.0       0.0  0.0     0   0       0    
         4       0     1.0     0.0     0.0    0.0       0.0  0.0     0   0       0    
         5       0     1.0     0.0     800    300       0.0  0.0     0   0     22.72  
         ];
        

% ********************************************************************** %
%                             Dados de linha
% ********************************************************************** %
%         Barra  Barra    R      X     1/2 B   
%         De     Para    p.u.   p.u.   p.u.   tap   tmin tmax
linedata=[ 1      3      0.0    0.02   0.0     1     0.9  1.1
           3      4      0.0    0.04   0.0     1     0.0  0.0
           3      5      0.0    0.04   0.0     1     0.0  0.0
           4      5      0.0    0.04   0.0     1     0.0  0.0
           4      2      0.0    0.02   0.0     1     0.9  1.1
          ];
          
% ********************************************************************** %
%                             Fim da Leitura de Dados
% ********************************************************************** %

